Version 4
SHEET 1 1900 680
WIRE 464 -144 272 -144
WIRE 272 -80 272 -144
WIRE 784 -64 656 -64
WIRE 976 -64 848 -64
WIRE 464 0 464 -64
WIRE 656 32 656 -64
WIRE 784 32 656 32
WIRE 976 32 976 -64
WIRE 976 32 864 32
WIRE 208 128 176 128
WIRE 272 128 272 0
WIRE 272 128 208 128
WIRE 352 128 272 128
WIRE 432 128 352 128
WIRE 528 128 496 128
WIRE 656 128 656 32
WIRE 656 128 608 128
WIRE 784 128 656 128
WIRE 976 128 976 32
WIRE 976 128 864 128
WIRE 1152 128 976 128
WIRE 1184 128 1152 128
WIRE 352 144 352 128
WIRE 176 160 176 128
WIRE 176 160 112 160
WIRE 48 192 -48 192
WIRE 176 192 112 192
WIRE -48 208 -48 192
WIRE 656 208 656 128
WIRE 176 256 176 192
WIRE 352 288 352 208
WIRE 1152 288 1152 208
WIRE 656 304 656 272
WIRE -48 320 -48 288
FLAG -48 320 0
FLAG 464 0 0
FLAG 176 256 0
FLAG 352 288 0
FLAG 1184 128 VOUT
FLAG 1152 288 0
FLAG 656 304 0
FLAG 208 128 DRAIN
SYMBOL voltage -48 192 M0
WINDOW 123 0 0 Left 0
WINDOW 39 0 0 Left 0
WINDOW 3 -400 134 Left 2
SYMATTR Value PULSE(0 5 0 1n 1n 18.6n 37.2n)
SYMATTR InstName V1
SYMBOL voltage 464 -160 R0
WINDOW 123 0 0 Left 0
WINDOW 39 0 0 Left 0
SYMATTR InstName V2
SYMATTR Value 12
SYMBOL cap 336 144 R0
SYMATTR InstName C1
SYMATTR Value 40p
SYMBOL ind 256 -96 R0
SYMATTR InstName L1
SYMATTR Value 10µ
SYMBOL cap 496 112 R90
WINDOW 0 0 32 VBottom 2
WINDOW 3 32 32 VTop 2
SYMATTR InstName Cf
SYMATTR Value 92p
SYMBOL ind 512 144 R270
WINDOW 0 32 56 VTop 2
WINDOW 3 5 56 VBottom 2
SYMATTR InstName Ltot
SYMATTR Value 1.0µ
SYMBOL res 1136 112 R0
SYMATTR InstName R1
SYMATTR Value 50
SYMBOL ind 768 144 R270
WINDOW 0 32 56 VTop 2
WINDOW 3 5 56 VBottom 2
SYMATTR InstName L3b
SYMATTR Value 1.5µ
SYMBOL cap 640 208 R0
SYMATTR InstName C2
SYMATTR Value 100p
SYMBOL cap 848 -80 R90
WINDOW 0 0 32 VBottom 2
WINDOW 3 32 32 VTop 2
SYMATTR InstName C3
SYMATTR Value 12p
SYMBOL AutoGenerated\\irlml2060pbf 80 176 R0
SYMATTR InstName U1
SYMBOL ind 768 48 R270
WINDOW 0 32 56 VTop 2
WINDOW 3 5 56 VBottom 2
SYMATTR InstName L3a
SYMATTR Value 1µ
TEXT -8 -48 Left 2 ;26.9MHz : t = 37.2ns
TEXT -8 -16 Left 2 ;27.4MHz : t = 36.5ns
TEXT 0 48 Left 2 !.tran 0 100u 0
