Version 4
SHEET 1 1900 680
WIRE 464 -144 272 -144
WIRE 272 -80 272 -144
WIRE -528 -64 -528 -128
WIRE 464 0 464 -64
WIRE 784 16 656 16
WIRE 976 16 848 16
WIRE -32 128 -64 128
WIRE 112 128 -32 128
WIRE 272 128 272 0
WIRE 272 128 192 128
WIRE 352 128 272 128
WIRE 432 128 352 128
WIRE 528 128 496 128
WIRE 656 128 656 16
WIRE 656 128 608 128
WIRE 784 128 656 128
WIRE 976 128 976 16
WIRE 976 128 864 128
WIRE 1152 128 976 128
WIRE 1184 128 1152 128
WIRE 352 144 352 128
WIRE -64 160 -64 128
WIRE -64 160 -128 160
WIRE -496 192 -528 192
WIRE -368 192 -496 192
WIRE -192 192 -288 192
WIRE -64 192 -128 192
WIRE -528 208 -528 192
WIRE 656 208 656 128
WIRE -64 256 -64 192
WIRE 352 288 352 208
WIRE 1152 288 1152 208
WIRE 656 304 656 272
WIRE -528 320 -528 288
FLAG -528 320 0
FLAG 464 0 0
FLAG -64 256 0
FLAG 352 288 0
FLAG 1184 128 VOUT
FLAG 1152 288 0
FLAG 656 304 0
FLAG -32 128 DRAIN
FLAG -528 16 0
FLAG -528 -128 ENERGY
FLAG -496 192 GATE
SYMBOL voltage -528 192 M0
WINDOW 123 0 0 Left 0
WINDOW 39 0 0 Left 0
WINDOW 3 -400 134 Left 2
SYMATTR Value PULSE(0 5 0 1n 1n 18.6n 37.2n)
SYMATTR InstName V1
SYMBOL voltage 464 -160 R0
WINDOW 123 0 0 Left 0
WINDOW 39 0 0 Left 0
SYMATTR InstName V2
SYMATTR Value 12
SYMBOL cap 336 144 R0
SYMATTR InstName C1
SYMATTR Value 39p
SYMBOL ind 256 -96 R0
SYMATTR InstName L1
SYMATTR Value 10µ
SYMBOL cap 496 112 R90
WINDOW 0 0 32 VBottom 2
WINDOW 3 32 32 VTop 2
SYMATTR InstName Cf
SYMATTR Value 100p
SYMBOL ind 512 144 R270
WINDOW 0 32 56 VTop 2
WINDOW 3 5 56 VBottom 2
SYMATTR InstName Ltot
SYMATTR Value 1.0µ
SYMBOL res 1136 112 R0
SYMATTR InstName R1
SYMATTR Value 50
SYMBOL ind 768 144 R270
WINDOW 0 32 56 VTop 2
WINDOW 3 5 56 VBottom 2
SYMATTR InstName L3
SYMATTR Value 650n
SYMBOL cap 640 208 R0
SYMATTR InstName C2
SYMATTR Value 100p
SYMBOL cap 848 0 R90
WINDOW 0 0 32 VBottom 2
WINDOW 3 32 32 VTop 2
SYMATTR InstName C3
SYMATTR Value 12p
SYMBOL AutoGenerated\\irlml2060pbf -160 176 R0
SYMATTR InstName U1
SYMBOL bv -528 -80 R0
SYMATTR InstName B1
SYMATTR Value V=idt(V(GATE)*I(RG)+V(DRAIN)*I(RD))
SYMBOL res -384 176 M90
WINDOW 0 0 56 VBottom 2
WINDOW 3 32 56 VTop 2
SYMATTR InstName RG
SYMATTR Value 0.001
SYMBOL res 208 112 R90
WINDOW 0 0 56 VBottom 2
WINDOW 3 32 56 VTop 2
SYMATTR InstName RD
SYMATTR Value 0.001
TEXT -288 408 Left 2 ;26.9MHz : t = 37.2ns
TEXT -288 376 Left 2 ;27.4MHz : t = 36.5ns
TEXT -520 384 Left 2 !.tran 0 100u 0
